# RHF/6-31G(d) Freq

Formaldehyde Frequencies

0 1
O       -1.1775423557     -0.0297478653     -0.1355825098                 
C        0.0335272438      0.0008466725      0.0038600766                 
H        0.6732859235      0.1872415494     -0.8516656206                 
H        0.4707281885     -0.1583403566      0.9833870538                 

